Circuit: * C:\users\inaciose\Documents\LTspiceXVII\ua\t4\tp4-c1-1-2-ac.asc

Direct Newton iteration for .op point succeeded.

Date: Tue Dec 02 03:06:12 2025
Total elapsed time: 0.134 seconds.

tnom = 27
temp = 27
method = trap
totiter = 7
traniter = 0
tranpoints = 0
accept = 0
rejected = 0
matrix size = 29
fillins = 14
solver = Normal
Matrix Compiler1:     150 opcodes
Matrix Compiler2: 2.66 KB object code size
